Version 4
SHEET 1 2424 724
WIRE 1152 -16 1024 -16
WIRE 1328 -16 1232 -16
WIRE 1408 -16 1328 -16
WIRE 1552 -16 1488 -16
WIRE 1648 -16 1552 -16
WIRE 1744 -16 1728 -16
WIRE 1904 -16 1744 -16
WIRE 176 16 32 16
WIRE 336 16 176 16
WIRE 560 16 336 16
WIRE 688 16 560 16
WIRE 32 32 32 16
WIRE 1328 64 1328 -16
WIRE 1552 64 1552 -16
WIRE 1744 64 1744 -16
WIRE 1904 64 1904 -16
WIRE 1024 80 1024 -16
WIRE 560 96 560 16
WIRE 176 112 176 16
WIRE -176 160 -256 160
WIRE -80 160 -96 160
WIRE 32 160 32 112
WIRE 32 160 -16 160
WIRE 64 160 32 160
WIRE 112 160 64 160
WIRE 336 160 336 16
WIRE 688 160 688 96
WIRE -256 192 -256 160
WIRE 272 208 176 208
WIRE 1024 256 1024 160
WIRE 1328 256 1328 144
WIRE 1552 256 1552 144
WIRE 1744 256 1744 144
WIRE 1904 256 1904 144
WIRE 560 272 560 176
WIRE 560 272 448 272
WIRE 208 288 144 288
WIRE 336 288 336 256
WIRE 336 288 272 288
WIRE 336 304 336 288
WIRE 560 304 560 272
WIRE 144 336 144 288
WIRE 448 384 448 272
WIRE 448 384 384 384
WIRE 512 384 448 384
WIRE 1040 432 912 432
WIRE 1216 432 1120 432
WIRE 1296 432 1216 432
WIRE 1440 432 1376 432
WIRE 1536 432 1440 432
WIRE 1632 432 1616 432
WIRE 1792 432 1632 432
WIRE 1936 432 1792 432
WIRE 144 464 144 416
WIRE 1440 480 1440 432
WIRE 1488 480 1440 480
WIRE 1632 480 1632 432
WIRE 1680 480 1632 480
WIRE 336 496 336 400
WIRE 448 496 336 496
WIRE 560 496 560 400
WIRE 560 496 448 496
WIRE 1936 496 1936 432
WIRE 1216 512 1216 432
WIRE 1440 512 1440 480
WIRE 1488 512 1488 480
WIRE 1632 512 1632 480
WIRE 1680 512 1680 480
WIRE 448 528 448 496
WIRE 912 528 912 432
WIRE 1440 624 1440 592
WIRE 1488 624 1488 592
WIRE 1488 624 1440 624
WIRE 1632 624 1632 592
WIRE 1680 624 1680 592
WIRE 1680 624 1632 624
WIRE 1936 688 1936 576
WIRE 1216 704 1216 592
WIRE 1440 704 1440 624
WIRE 1632 704 1632 624
FLAG 688 160 0
FLAG -256 272 0
FLAG 64 160 vin
FLAG 448 528 0
FLAG 144 464 0
FLAG 1024 256 0
FLAG 1328 256 0
FLAG 1552 256 0
FLAG 1744 256 0
FLAG 1904 256 0
FLAG 1328 -16 Vi
FLAG 1904 -16 Vo
FLAG 1216 704 0
FLAG 1440 704 0
FLAG 1632 704 0
FLAG 1216 432 Vi
FLAG 1792 432 Vop
FLAG 912 528 0
FLAG 1936 688 0
SYMBOL npn 112 112 R0
SYMATTR InstName Q1
SYMATTR Value BC547B
SYMBOL npn 272 160 R0
SYMATTR InstName Q2
SYMATTR Value BC547B
SYMBOL res 16 16 R0
SYMATTR InstName R1
SYMATTR Value 1k
SYMBOL voltage 688 0 R0
WINDOW 123 0 0 Left 0
WINDOW 39 0 0 Left 0
SYMATTR InstName Vcc
SYMATTR Value 9
SYMBOL cap -16 144 R90
WINDOW 0 0 32 VBottom 2
WINDOW 3 32 32 VTop 2
SYMATTR InstName Ci
SYMATTR Value 100n
SYMBOL voltage -256 176 R0
WINDOW 123 24 124 Left 2
WINDOW 39 0 0 Left 0
WINDOW 3 24 44 Left 2
SYMATTR Value2 AC 1
SYMATTR Value SINE(0 10m 10k)
SYMATTR InstName Vs
SYMBOL res -80 144 R90
WINDOW 0 0 56 VBottom 2
WINDOW 3 32 56 VTop 2
SYMATTR InstName Rs
SYMATTR Value 50
SYMBOL nmos 512 304 R0
SYMATTR InstName M1
SYMATTR Value BS170
SYMBOL nmos 384 304 M0
SYMATTR InstName M2
SYMATTR Value BS170
SYMBOL res 544 80 R0
SYMATTR InstName Rref
SYMATTR Value 745
SYMBOL cap 272 272 R90
WINDOW 0 0 32 VBottom 2
WINDOW 3 32 32 VTop 2
SYMATTR InstName CL
SYMATTR Value 100n
SYMBOL res 128 320 R0
SYMATTR InstName RL
SYMATTR Value 100k
SYMBOL voltage 1024 64 R0
WINDOW 123 24 124 Left 2
WINDOW 39 0 0 Left 0
WINDOW 3 -215 109 Left 2
SYMATTR Value2 AC 1
SYMATTR Value SINE(0 50m 10k)
SYMATTR InstName Vs1
SYMBOL res 1248 -32 R90
WINDOW 0 0 56 VBottom 2
WINDOW 3 63 61 VBottom 2
SYMATTR InstName RS_
SYMATTR Value {RS_}
SYMBOL res 1312 48 R0
SYMATTR InstName RB
SYMATTR Value {RB}
SYMBOL res 1392 0 R270
WINDOW 0 32 56 VTop 2
WINDOW 3 -33 56 VTop 2
SYMATTR InstName hie1
SYMATTR Value {hie1}
SYMBOL res 1888 48 R0
WINDOW 3 36 68 Left 2
SYMATTR Value {RD}
SYMATTR InstName RD
SYMBOL res 1632 0 R270
WINDOW 0 32 56 VTop 2
WINDOW 3 0 56 VBottom 2
SYMATTR InstName hie2
SYMATTR Value {hie2}
SYMBOL res 1136 416 R90
WINDOW 0 0 56 VBottom 2
WINDOW 3 63 61 VBottom 2
SYMATTR InstName RS_1
SYMATTR Value {RS_}
SYMBOL res 1232 608 R180
WINDOW 0 36 76 Left 2
WINDOW 3 36 48 Left 2
SYMATTR InstName RB1
SYMATTR Value {RB}
SYMBOL res 1280 448 R270
WINDOW 0 32 56 VTop 2
WINDOW 3 -33 56 VTop 2
SYMATTR InstName hie3
SYMATTR Value {hie1}
SYMBOL current 1632 592 R180
WINDOW 0 24 80 Left 2
WINDOW 3 24 52 Left 2
WINDOW 123 0 0 Left 0
WINDOW 39 0 0 Left 0
SYMATTR InstName I3
SYMATTR Value {I2}
SYMBOL current 1440 592 R180
WINDOW 0 24 80 Left 2
WINDOW 3 24 52 Left 2
WINDOW 123 0 0 Left 0
WINDOW 39 0 0 Left 0
SYMATTR InstName I4
SYMATTR Value {I1}
SYMBOL res 1632 416 R90
WINDOW 0 0 56 VBottom 2
WINDOW 3 65 59 VBottom 2
SYMATTR InstName hie4
SYMATTR Value {hie2}
SYMBOL res 1472 496 R0
SYMATTR InstName R2
SYMATTR Value 2.028Meg
SYMBOL res 1664 496 R0
SYMATTR InstName R3
SYMATTR Value 6944
SYMBOL voltage 1936 592 R180
WINDOW 123 24 124 Left 2
WINDOW 39 0 0 Left 0
WINDOW 3 -215 109 Left 2
SYMATTR Value2 AC 1
SYMATTR Value SINE(0 50m 10k)
SYMATTR InstName Vs2
SYMBOL bi 1744 144 R180
WINDOW 0 24 80 Left 2
WINDOW 3 24 0 Left 2
SYMATTR InstName B1
SYMATTR Value {I(hie2)}*150
SYMBOL bi 1552 144 R180
WINDOW 0 24 80 Left 2
WINDOW 3 24 0 Left 2
SYMATTR InstName B2
SYMATTR Value {I(hie1)}*150
TEXT -288 552 Left 2 !;ac dec 100 0.1 1G
TEXT 1048 -120 Left 2 ;Modelo incremental
TEXT 2176 -48 Left 2 !.param RS_=50
TEXT 2176 -16 Left 2 !.param RB=1k
TEXT 2176 16 Left 2 !.param RE=10554
TEXT 2176 48 Left 2 !.param RL=100K
TEXT 2176 80 Left 2 !.param RD=10554
TEXT 2176 112 Left 2 !.param hie1=130k
TEXT 2176 144 Left 2 !.param hie2=997
TEXT 2176 176 Left 2 !.param I1=29.6u
TEXT 2176 208 Left 2 !.param I2=8.64m
TEXT -288 576 Left 2 !;op
TEXT 2176 240 Left 2 !.tran 0 1m 1u
