Version 4
SHEET 1 880 680
WIRE 112 32 48 32
WIRE 224 32 192 32
WIRE 304 32 224 32
WIRE 224 64 224 32
WIRE 48 112 48 32
WIRE 224 160 224 128
WIRE 48 256 48 192
WIRE 224 256 224 224
WIRE 224 256 48 256
WIRE 224 272 224 256
FLAG 224 272 0
FLAG 304 32 Vo
FLAG 48 32 Vi
SYMBOL voltage 48 96 R0
WINDOW 123 0 0 Left 0
WINDOW 39 0 0 Left 0
SYMATTR InstName V1
SYMATTR Value 0
SYMBOL res 208 16 R90
WINDOW 0 0 56 VBottom 2
WINDOW 3 32 56 VTop 2
SYMATTR InstName R1
SYMATTR Value 1k
SYMBOL AutoGenerated\\BZX3V6 224 96 R90
SYMATTR InstName U1
SYMBOL AutoGenerated\\BZX3V6 224 192 R270
SYMATTR InstName U2
TEXT 14 296 Left 2 !.dc V1 -10 10 0.1
