Version 4
SHEET 1 880 680
WIRE 448 -272 320 -272
WIRE 240 -192 240 -272
WIRE 240 -192 -112 -192
WIRE 240 -144 240 -192
WIRE 240 48 240 -64
WIRE -112 96 -112 -192
WIRE -48 96 -112 96
WIRE 176 96 32 96
WIRE 240 256 240 144
WIRE 240 400 240 336
FLAG 240 400 0
FLAG 448 -272 0
SYMBOL npn 176 48 R0
SYMATTR InstName Q1
SYMATTR Value BC547B
SYMBOL res 224 -160 R0
SYMATTR InstName R1
SYMATTR Value 1800
SYMBOL res 48 80 R90
WINDOW 0 0 56 VBottom 2
WINDOW 3 32 56 VTop 2
SYMATTR InstName R2
SYMATTR Value 258.5k
SYMBOL res 256 352 R180
WINDOW 0 36 76 Left 2
WINDOW 3 36 40 Left 2
SYMATTR InstName R3
SYMATTR Value 1800
SYMBOL voltage 224 -272 R270
WINDOW 0 32 56 VTop 2
WINDOW 3 -32 56 VBottom 2
WINDOW 123 0 0 Left 0
WINDOW 39 0 0 Left 0
SYMATTR InstName V1
SYMATTR Value 9
TEXT -114 424 Left 2 !.tran 10
