Version 4
SHEET 1 880 680
WIRE 448 -272 320 -272
WIRE 240 -192 240 -272
WIRE 240 -192 -32 -192
WIRE 240 -144 240 -192
WIRE -32 -128 -32 -192
WIRE 240 -16 240 -64
WIRE 480 -16 240 -16
WIRE 496 -16 480 -16
WIRE 240 48 240 -16
WIRE 480 80 480 64
WIRE -304 96 -400 96
WIRE -32 96 -32 -48
WIRE -32 96 -224 96
WIRE 176 96 -32 96
WIRE -400 208 -400 96
WIRE 240 256 240 144
WIRE 240 400 240 336
WIRE -400 416 -400 288
FLAG 240 400 0
FLAG 448 -272 0
FLAG -400 416 0
FLAG 480 80 0
SYMBOL npn 176 48 R0
SYMATTR InstName Q1
SYMATTR Value BC547B
SYMBOL res 224 -160 R0
SYMATTR InstName R1
SYMATTR Value 2200
SYMBOL res -16 -32 R180
WINDOW 0 36 76 Left 2
WINDOW 3 36 40 Left 2
SYMATTR InstName R2
SYMATTR Value 258.5k
SYMBOL res 256 352 R180
WINDOW 0 36 76 Left 2
WINDOW 3 36 40 Left 2
SYMATTR InstName R3
SYMATTR Value 1800
SYMBOL voltage 224 -272 R270
WINDOW 0 32 56 VTop 2
WINDOW 3 -32 56 VBottom 2
WINDOW 123 0 0 Left 0
WINDOW 39 0 0 Left 0
SYMATTR InstName V1
SYMATTR Value 9
SYMBOL voltage -400 192 R0
WINDOW 123 0 0 Left 0
WINDOW 39 0 0 Left 0
SYMATTR InstName V2
SYMATTR Value SINE(0 50m 10k)
SYMBOL res -208 80 R90
WINDOW 0 0 56 VBottom 2
WINDOW 3 32 56 VTop 2
SYMATTR InstName R4
SYMATTR Value 100
SYMBOL res 464 -32 R0
SYMATTR InstName R5
SYMATTR Value 56k
TEXT -114 424 Left 2 !.tran 1
