Version 4
SHEET 1 880 680
WIRE 176 32 32 32
WIRE 336 32 176 32
WIRE 432 32 336 32
WIRE 32 48 32 32
WIRE 432 48 432 32
WIRE 176 112 176 32
WIRE 432 144 432 128
WIRE -144 160 -208 160
WIRE -48 160 -64 160
WIRE 32 160 32 128
WIRE 32 160 16 160
WIRE 64 160 32 160
WIRE 112 160 64 160
WIRE 336 160 336 32
WIRE -208 176 -208 160
WIRE 272 208 176 208
WIRE -208 272 -208 256
WIRE 336 288 336 256
WIRE 400 288 336 288
WIRE 336 320 336 288
WIRE 336 432 336 400
FLAG 432 144 0
FLAG -208 272 0
FLAG 64 160 vin
FLAG 336 432 0
FLAG 400 288 vout
SYMBOL npn 112 112 R0
SYMATTR InstName Q1
SYMATTR Value BC547B
SYMBOL npn 272 160 R0
SYMATTR InstName Q2
SYMATTR Value BC547B
SYMBOL res 16 32 R0
SYMATTR InstName R1
SYMBOL voltage 432 32 R0
WINDOW 123 0 0 Left 0
WINDOW 39 0 0 Left 0
SYMATTR InstName Vcc
SYMATTR Value 10
SYMBOL cap 16 144 R90
WINDOW 0 0 32 VBottom 2
WINDOW 3 32 32 VTop 2
SYMATTR InstName C1
SYMBOL voltage -208 160 R0
WINDOW 123 24 124 Left 2
WINDOW 39 0 0 Left 0
SYMATTR Value2 AC 1m
SYMATTR InstName Vs
SYMATTR Value ""
SYMBOL res -48 144 R90
WINDOW 0 0 56 VBottom 2
WINDOW 3 32 56 VTop 2
SYMATTR InstName Rs
SYMATTR Value 660 k
SYMBOL res 320 304 R0
SYMATTR InstName RL
SYMATTR Value 10k
